     6
Step1
  C       0.77334        0.00041        0.00005
  H       0.76812        0.07641        1.07193
  H       0.76811        0.89214       -0.60012
  H       0.76823       -0.96531       -0.46978
  Cl      3.15164       -0.00017       -0.00007
  Br     -1.72921       -0.00008       -0.00003
     6
Step2
  C       0.83526        0.00044        0.00007
  H       0.87857        0.07646        1.07213
  H       0.87823        0.89233       -0.60018
  H       0.87908       -0.96545       -0.46982
  Cl      3.27377       -0.00014       -0.00005
  Br     -1.61128       -0.00005       -0.00002
     6
Step3
  C       0.78360        0.00070       -0.00111
  H       0.87399        0.07522        1.06931
  H       0.87319        0.89053       -0.60118
  H       0.87455       -0.96350       -0.47215
  Cl      3.28161       -0.00016        0.00015
  Br     -1.60672       -0.00006        0.00015
     6
Step4
  C       0.73213        0.00078       -0.00185
  H       0.86676        0.07465        1.06463
  H       0.86530        0.88765       -0.59942
  H       0.86554       -0.95965       -0.47159
  Cl      3.28932       -0.00016        0.00027
  Br     -1.60200       -0.00008        0.00024
     6
Step5
  C       0.68074        0.00082       -0.00236
  H       0.85699        0.07394        1.05901
  H       0.85486        0.88366       -0.59703
  H       0.85588       -0.95518       -0.47032
  Cl      3.29717       -0.00016        0.00036
  Br     -1.59728       -0.00008        0.00031
     6
Step6
  C       0.62982        0.00085       -0.00279
  H       0.84264        0.07349        1.05255
  H       0.83994        0.87898       -0.59399
  H       0.83992       -0.94950       -0.46832
  Cl      3.30539       -0.00017        0.00045
  Br     -1.59261       -0.00009        0.00035
     6
Step7
  C       0.57906        0.00085       -0.00314
  H       0.82684        0.07276        1.04625
  H       0.82363        0.87413       -0.59116
  H       0.82571       -0.94452       -0.46648
  Cl      3.31445       -0.00017        0.00053
  Br     -1.58831       -0.00008        0.00039
     6
Step8
  C       0.53038        0.00096       -0.00361
  H       0.80049        0.07271        1.03873
  H       0.79695        0.86877       -0.58755
  H       0.79503       -0.93738       -0.46382
  Cl      3.32498       -0.00019        0.00065
  Br     -1.58451       -0.00012        0.00042
     6
Step9
  C       0.48277        0.00075       -0.00379
  H       0.79755        0.07168        1.03538
  H       0.79317        0.86572       -0.58623
  H       0.79845       -0.93588       -0.46304
  Cl      3.34012       -0.00016        0.00073
  Br     -1.58393       -0.00006        0.00043
     6
Step10
  C       0.45492       -0.00073       -0.00586
  H       0.74429        0.06957        1.02467
  H       0.73917        0.85698       -0.58430
  H       0.75295       -0.92946       -0.46157
  Cl      3.35870        0.00007        0.00117
  Br     -1.58598        0.00012        0.00064
     6
Step11
  C       0.45651        0.00298       -0.00516
  H       0.77165        0.07569        1.02982
  H       0.76728        0.86532       -0.58501
  H       0.75648       -0.92743       -0.46130
  Cl      3.38064       -0.00056        0.00119
  Br     -1.59669       -0.00038        0.00047
     6
Step12
  C       0.45520        0.00206       -0.00730
  H       0.76457        0.07391        1.02608
  H       0.75875        0.86145       -0.58860
  H       0.77227       -0.93136       -0.46387
  Cl      3.40598       -0.00044        0.00176
  Br     -1.60773       -0.00017        0.00067
     6
Step13
  C       0.43083       -0.00362       -0.01413
  H       0.75091        0.07074        1.01980
  H       0.74263        0.85735       -0.59573
  H       0.74217       -0.93176       -0.46815
  Cl      3.42976        0.00053        0.00319
  Br     -1.61379        0.00036        0.00130
     6
Step14
  C       0.93879        0.00044        0.00006
  H       0.88504        0.07643        1.07176
  H       0.88536        0.89202       -0.60002
  H       0.88474       -0.96512       -0.46970
  Cl      3.25686       -0.00013       -0.00005
  Br     -1.61978       -0.00005       -0.00001
     6
Step15
  C       0.99021        0.00069       -0.00114
  H       0.88913        0.07525        1.06858
  H       0.88966        0.88986       -0.60095
  H       0.88827       -0.96290       -0.47184
  Cl      3.24783       -0.00015        0.00014
  Br     -1.62375       -0.00007        0.00017
     6
Step16
  C       1.04135        0.00074       -0.00189
  H       0.89529        0.07476        1.06349
  H       0.89732        0.88654       -0.59907
  H       0.89707       -0.95875       -0.47102
  Cl      3.23854       -0.00016        0.00022
  Br     -1.62770       -0.00007        0.00028
     6
Step17
  C       1.09245        0.00076       -0.00240
  H       0.90425        0.07412        1.05740
  H       0.90668        0.88213       -0.59676
  H       0.90549       -0.95405       -0.46961
  Cl      3.22912       -0.00015        0.00028
  Br     -1.63163       -0.00008        0.00036
     6
Step18
  C       1.14314        0.00075       -0.00285
  H       0.91706        0.07378        1.05050
  H       0.92074        0.87694       -0.59357
  H       0.92066       -0.94801       -0.46726
  Cl      3.21959       -0.00015        0.00030
  Br     -1.63565       -0.00008        0.00044
     6
Step19
  C       1.19404        0.00075       -0.00323
  H       0.93188        0.07316        1.04352
  H       0.93509        0.87157       -0.59082
  H       0.93278       -0.94269       -0.46523
  Cl      3.21053       -0.00012        0.00033
  Br     -1.63991       -0.00009        0.00051
     6
Step20
  C       1.24344        0.00078       -0.00374
  H       0.95646        0.07322        1.03533
  H       0.96215        0.86531       -0.58674
  H       0.96396       -0.93494       -0.46190
  Cl      3.20270       -0.00016        0.00031
  Br     -1.64500       -0.00009        0.00060
     6
Step21
  C       1.29492        0.00071       -0.00413
  H       0.96285        0.07246        1.03052
  H       0.96602        0.86162       -0.58578
  H       0.96077       -0.93268       -0.46113
  Cl      3.19906       -0.00006        0.00033
  Br     -1.65131       -0.00010        0.00069
     6
Step22
  C       1.32806        0.00015       -0.00618
  H       1.02481        0.07136        1.01905
  H       1.02507        0.85282       -0.58382
  H       1.01185       -0.92450       -0.45949
  Cl      3.20413        0.00016        0.00075
  Br     -1.66079       -0.00009        0.00092
     6
Step23
  C       1.34527        0.00227       -0.00530
  H       0.99875        0.07644        1.02513
  H       1.01226        0.85966       -0.58292
  H       1.02634       -0.92378       -0.45751
  Cl      3.22389       -0.00061        0.00001
  Br     -1.67186       -0.00024        0.00100
     6
Step24
  C       1.35846        0.00136       -0.00730
  H       1.03068        0.07410        1.02068
  H       1.03214        0.85612       -0.58746
  H       1.01937       -0.92695       -0.46095
  Cl      3.24587       -0.00006        0.00042
  Br     -1.68417       -0.00022        0.00128
     6
Step25
  C       1.38912        0.00086       -0.00818
  H       1.05387        0.07595        1.02174
  H       1.06071        0.85657       -0.58783
  H       1.05617       -0.92490       -0.45908
  Cl      3.26082        0.00001        0.00004
  Br     -1.69659       -0.00023        0.00155
     6
Step26
  C       1.39901        0.00588       -0.00434
  H       1.06537        0.08266        1.02457
  H       1.07016        0.86103       -0.58573
  H       1.06665       -0.92324       -0.45507
  Cl      3.28433       -0.00115       -0.00160
  Br     -1.70891       -0.00065        0.00158
     6
Step27
  C       1.43018        0.00649       -0.00312
  H       1.09064        0.08659        1.02574
  H       1.09689        0.85932       -0.58569
  H       1.08501       -0.92251       -0.44970
  Cl      3.30001       -0.00105       -0.00304
  Br     -1.72150       -0.00082        0.00194
